Version 4
SHEET 1 940 680
WIRE -240 -128 -320 -128
WIRE -160 -128 -240 -128
WIRE -320 -80 -320 -128
WIRE 224 -80 160 -80
WIRE 224 -48 224 -80
WIRE -320 16 -320 0
WIRE -160 16 -160 -128
WIRE -160 16 -208 16
WIRE -112 16 -160 16
WIRE -208 48 -208 16
WIRE -112 48 -112 16
WIRE 160 80 160 -80
WIRE 128 96 32 96
WIRE 128 128 80 128
WIRE -208 144 -208 128
WIRE 32 144 32 96
WIRE 32 144 -208 144
WIRE -112 160 -112 128
WIRE 32 160 -112 160
WIRE -208 176 -208 144
WIRE -112 176 -112 160
WIRE 400 176 304 176
WIRE 432 176 400 176
WIRE 80 224 80 208
WIRE 128 224 80 224
WIRE 32 256 32 160
WIRE 128 256 32 256
WIRE -208 288 -208 256
WIRE -176 288 -208 288
WIRE -112 288 -112 256
WIRE -112 288 -176 288
WIRE 160 320 160 272
WIRE 160 416 160 400
FLAG 224 32 0
FLAG -176 288 0
FLAG -320 16 0
FLAG 240 240 0
FLAG 400 176 out
FLAG -240 -128 5V
FLAG 432 256 0
FLAG 160 416 0
SYMBOL Opamps\\AD8429 160 176 R0
SYMATTR InstName U1
SYMBOL voltage 224 -64 R0
WINDOW 123 0 0 Left 0
WINDOW 39 0 0 Left 0
SYMATTR InstName V1
SYMATTR Value 5
SYMBOL res -224 32 R0
SYMATTR InstName R1
SYMATTR Value {Rnom - Rs}
SYMBOL res -128 32 R0
SYMATTR InstName R2
SYMATTR Value {Rnom + Rs}
SYMBOL res -224 160 R0
SYMATTR InstName R3
SYMATTR Value {Rnom + Rs}
SYMBOL res -128 160 R0
SYMATTR InstName R4
SYMATTR Value {Rnom - Rs}
SYMBOL voltage -320 -96 R0
WINDOW 123 0 0 Left 0
WINDOW 39 0 0 Left 0
SYMATTR InstName V2
SYMATTR Value SINE(5 1u 1k)
SYMBOL res 64 112 R0
SYMATTR InstName R5
SYMATTR Value 6.04
SYMATTR SpiceLine tol=1
SYMBOL res 416 160 R0
SYMATTR InstName R6
SYMATTR Value 1k
SYMBOL voltage 160 416 R180
WINDOW 123 0 0 Left 0
WINDOW 39 0 0 Left 0
SYMATTR InstName V3
SYMATTR Value 5
TEXT -354 312 Left 2 !.noise V(out) Rs lin 100 1 100k
TEXT 536 24 Left 2 !.step param Rs 1m 100m 10m
TEXT 536 80 Left 2 !.param Rnom = 1k
